<dataset>
    <routes id="22" name="Clark"/>
    <routes id="36" name="Broadway"/>
</dataset>